CM 
CE
GW	1	20	0	0	10	2.82	0	10	#1
GW	2	9	2.82	0	10	2.82	0	8.59	#1
GW	3	80	2.82	0	8.59	1.44	0	8.59	#1
GW	4	80	1.44	0	8.59	1.44	0	7.18	#1
GW	5	80	0	0	10	0	0	8.59	#1
GW	6	80	0	0	8.59	1.40	0	8.59	#1
GW	7	80	1.40	0	8.59	1.40	0	7.18	#1
GW	8	80	1.40	0	7.18	1.44	0	7.18	#1
GE	1
GN	2	0	0	0	5	0.001
EK
EX	0	8	40	0	1	0	0
FR	0	0	0	0	26.960	0
EN
