CM 
CE
SY L=11.146201
SY a=0.239*L
SY b=0.1205*L
GW	1	250	0	0	3	b	0	3+a	#12	'X=b / Z=3+a
GW	2	250	b	0	3+a	0	0	3+(2a)	#12
GW	3	250	0	0	3+(2a)	-b	0	3+a	#12	'X=0b / Z=3+(2a)
GW	4	250	-b	0	3+a	0	0	3	#12
GE	1
LD	5	0	0	0	58000000
GN	2	0	0	0	5	0.001
EK
EX	0	1	1	0	1	0	0
EX	0	4	250	0	1	0	0
FR	0	0	0	0	27.245	0
EN
