CM 
CE
GW	1	40	0	0	3	1.335	0	5.648	#12	'X=b / Z=3+a
GW	2	40	1.335	0	5.648	0	0	8.296	#12
GW	3	40	0	0	8.296	-1.335	0	5.648	#12	'X=0b / Z=3+(2a)
GW	4	40	-1.335	0	5.648	0	0	3	#12
GE	1
LD	5	1	0	0	58000000
GN	2	0	0	0	5	0.001
EK
EX	0	1	1	0	1	0	0
EX	0	4	40	0	1	0	0
FR	0	0	0	0	26.960	0
EN
