CM 
CE
GW	1	9	0	0	5.46	1.28	0	5.46	#1
GW	2	9	1.28	0	5.46	1.28	0	10	#1
GW	3	9	1.28	0	10	0	0	10	#1
GW	4	9	0	0	10	0	0	5.46	#1
GE	1
GN	2	0	0	0	5	0.001
EK
EX	0	1	5	0	1	0	0
FR	0	0	0	0	26.960	0
EN
