CM 
CE
GW	1	20	0	0	10	0	0	7.8	#1
GW	2	20	0	0	7.8	0	0	2.5	#1
GE	1
GN	2	0	0	0	5	0.001
EK
EX	6	1	1	0	1	0	0
TL	1	1	1	20	0	2.2	0	0	0	0
FR	0	0	0	0	26.960	0
EN
