CM 
CE
SY a=0.185	'1 Element
SY b=0.39	'2 Elemente
GW	1	9	-a	0	9	a	0	9	#22
GW	2	9	a	0	9	a	0	9-(2*b)	#22
GW	3	9	a	0	9-(2*b)	-a	0	9-(2*b)	#22
GW	4	9	-a	0	9-(2*b)	-a	0	9	#22
GE	1
LD	5	0	0	0	58000000
GN	2	0	0	0	5	0.001
EK
EX	0	2	5	0	1	0	0
FR	0	0	0	0	145	0
EN
