
CM UHF SMALL 2-Bay Hentenna, Experimental Antenna Design: X1052, 4nec2 by XAuto, 5Sep2011
CM Well at 8.75" by 12" looks like the best that I can do.
CE
GW 1   3  0  -1.125   0
 0   1.125   0     0.08
GW 2   1  0   1.125   0
 0   1.125   1.25  0.04
GW 3   5  0   1.125   1.25
 0   4.375   1.25  0.04
GW 4  11  0   4.375   1.25
 0   4.375   6.5   0.04
GW 5  13  0   4.375   6.5
 0  -4.375   6.5   0.04
GW 6  11  0  -4.375   6.5
 0  -4.375   1.25  0.04
GW 7   5  0  -4.375   1.25
 0  -1.125   1.25  0.04
GW 8   1  0  -1.125   1.25
 0  -1.125   0     0.04
GW 9   1  0  -1.125   0
 0  -1.125  -1.25  0.04
GW 10  5  0  -1.125  -1.25
 0  -4.375  -1.25  0.04
GW 11  7  0  -4.375  -1.25
 0  -4.375  -5.5   0.04
GW 12 13  0  -4.375  -5.5
 0   4.375  -5.5   0.04
GW 13  7  0   4.375  -5.5
 0   4.375  -1.25  0.04
GW 14  5  0   4.375  -1.25
 0   1.125  -1.25  0.04
GW 15  1  0   1.125  -1.25
 0   1.125   0     0.04
GS 0 0 0.0254
' All in inches.
GE 0
EK
LD 5 0 0 0 5.8e7 0
EX 0 1 2 0 1 0
GN -1
' FR Freq Sweep choices in order of increasing calculation time (fm holl_ands):
' FR 0 0 0 0 470 0
' Fixed Freq
FR 0 29 0 0 470 12
' Freq Sweep 470-806 every 12 MHz - OLD UHF BAND
' FR 0 34 0 0 410 12
' Freq Sweep 410-806 every 12 MHz - Even Wider Sweep
' FR 0 39 0 0 470 6
' Freq Sweep 470-698 every 6 MHz - PREFERRED FOR UHF
' FR 0 77 0 0 470 3
' Freq Sweep 470-698 every 3 MHz
' FR 0 153 0 0 470 1.5
' Freq Sweep 470-698 every 1.5 MHz
' FR 0 71 0 0 300 10
' Freq Sweep 300-1000 every 10 MHz - WIDEBAND SWEEP
' FR Hi-VHF choices:
' FR 0 15 0 0 174 3
' Freq Sweep 174-216 every 3 MHz
' FR 0 29 0 0 174 1.5
' Freq Sweep 174-216 every 1.5 MHz - PREFERRED
' FR 0 45 0 0 162 1.5
' Freq Sweep 162-228 every 1.5 MHz - Add +/- 12 MHz BW
' FR 0 43 0 0 174 1
' Freq Sweep 174-216 every 1 MHz - Hi-Rez
' FR 0 23 0 0 198 1
' Freq Sweep 198-220 every 1 MHz - Hi-Rez - Ch13 SPECIAL
' FR 0 26 0 0 150 6
' Freq Sweep 150-300 every 6 MHz - WIDEBAND SWEEP
' FR Lo-VHF choices:
' FR 0 19 0 0 54 3
' Frequency Sweep every 3 MHz for Ch2-6 + FM
' FR 0 35 0 0 54 1
' Frequency Sweep every 1 MHz for Ch2-6
' FR 0 36 0 0 75 1
' Frequency Sweep every 1 MHz for Ch5 + Ch6 + FM
' FR 0 28 0 0 54 6
' Wide Freq Sweep every 6 MHz for Ch2-13
' FR 0 64 0 0 54 12
' Super Wide Freq Sweep 54-810 every 12 MHz
' RP choices in order of increasing calculation time:
' RP 0 1 1 1510 90 90 1 1 0 0
' 1D Gain toward 0-deg Azimuth - SIDE GAIN
' RP 0 1 1 1510 90 0 1 1 0 0
' 1D Gain toward 90-deg Azimuth - FORWARD GAIN
' RP 0 1 1 1510 90 180 1 1 0 0
' 1D Gain toward 270-deg Azimuth - REVERSE GAIN
' RP 0 1 37 1510 90 0 1 5 0 0 
' 2D (Left only) Azimuthal Gain Slice
RP 0 1 73 1510 90 0 1 5 0 0
' 2D Azimuthal Gain Slice - PREFERRED
' RP 0 73 1 1510 90 0 5 1 0 0 
' 2D Elevation Gain Slice
' RP 0 73 73 1510 90 0 5 5 0 0 
' 3D Lower Hemisphere reveals antenna (Fixed Freq)
' RP 0 285 73 1510 90 0 5 5 0 0
' 3D Full Coverage obscures antenna (Fixed Freq)
EN
