CM 
CE
SY f=98	'Frequency in MHz
SY u=314.1423761/f	'length in meter
SY a=u/4	'Side length in meter
GW	1	50	0	0	9-a	a	0	9-a	#22
GW	2	50	a	0	9-a	a	0	9	#22
GW	3	50	a	0	9	0	0	9	#22
GW	4	50	0	0	9	0	0	9-a	#22
GE	1
LD	5	0	0	0	58000000
GN	2	0	0	0	5	0.001
EK
EX	0	2	25	0	1	0	0
FR	0	0	0	0	98	0
EN
