CM 
CM forw: 80, 80 ; back: 80, 260
CE
SY a=0.382	'2 Elemente innen
SY b=0.468404	'3 Elemente innen
GW	1	20	-a/2	0	9	a/2	0	9	#22
GW	2	20	a/2	0	9	a/2	0	9-(3*b/2)	#22
GW	3	20	a/2	0	9-(3*b/2)	-a/2	0	9-(3*b/2)	#22
GW	4	20	-a/2	0	9-(3*b/2)	-a/2	0	9	#22
GE	1
LD	5	0	0	0	58000000
GN	2	0	0	0	5	0.001
EK
EX	0	2	10	0	1	0	0
FR,0,1,0,0,145
PQ -1
PT -1
