CM 
CM forw: 65, 90 ; back: 65, 270
CE
SY L=5.900034
SY a=0.1984*L/2
SY b=0.10003*L/2
GW	1	60	0	0	3	b	0	3+a	#12	'X=b / Z=3+a
GW	2	60	b	0	3+a	0	0	3+(2a)	#12
GW	3	60	0	0	3+(2a)	-b	0	3+a	#12	'X=0b / Z=3+(2a)
GW	4	60	-b	0	3+a	0	0	3	#12
GE	1
LD	5	0	0	0	58000000
GN	2	0	0	0	5	0.001
EK
EX	0	1	1	0	1	0	0
EX	0	4	60	0	1	0	0
FR,0,1,0,0,26.96
PQ -1
PT -1
RP,0,19,73,1003,-90,0,5,5
