CM 
CM forw: 85, 90 ; back: 85, 270
CE
SY f=664.1333	'Frequency in MHz
SY u=(300/f)*1.083389	'length in meter
SY a=u/4	'Side length in meter
GW	1	20	0	0	9-a	a	0	9-a	#22
GW	2	20	a	0	9-a	a	0	9	#22
GW	3	20	a	0	9	0	0	9	#22
GW	4	20	0	0	9	0	0	9-a	#22
GE	1
LD	5	0	0	0	58000000
GN	2	0	0	0	5	0.001
EK
EX	0	1	10	0	1	0	0
FR,0,1,0,0,666
PQ -1
PT -1
RP,0,19,73,1003,-90,0,5,5
