CM 
CE
GW	1	9	0	0	10	1.854	0	10	#1
GW	2	9	1.854	0	10	1.854	0	5.55	#1
GW	3	9	0	0	10	0	0	5.55	#1
GW	4	9	0	0	5.55	1.854	0	5.55	#1
GW	5	9	1.854	0	5.55	1.854	0	4.438	#1
GW	6	9	1.854	0	4.438	0	0	4.438	#1
GW	7	9	0	0	4.438	0	0	5.55	#1
GE	1
GN	2	0	0	0	5	0.001
EK
EX	6	4	5	0	1	0	0
FR	0	0	0	0	26.960	0
EN
