CM 
CE
GW	1	40	-2.648	0	3	0	0	8.296	#12
GW	2	40	0	0	8.296	2.648	0	3	#12
GE	1
LD	5	0	0	0	58000000
GN	2	0	0	0	5	0.001
EK
EX	0	1	40	0	1	0	0
EX	0	2	1	01	1	0	0

FR	0	0	0	0	26.960	0
EN
