CM 
CE
GW	1	9	0	0	8	4.42	0	8	#1
GW	2	9	4.42	0	8	4.42	0	9.16	#1
GW	3	9	4.42	0	9.16	0	0	9.16	#1
GW	4	9	0	0	9.16	0	0	8	#1
GE	1
GN	2	0	0	0	5	0.001
EK
EX	0	2	5	0	1	0	0
FR	0	0	0	0	27.245	0
EN
