CM 
CE
SY f=145	'Frequency in MHz
SY u=(299.792458/f)*1.061376159	'length in meter
SY a=u/4	'Side length in meter
SY d=1.414213562*a	'Diagonale = Root of 2 multiplied by a
SY L=299.792458/f	'wavelength
GW	1	20	0	0	9-d	(d/2)	0	9-(d/2)	#22
GW	2	20	(d/2)	0	9-(d/2)	0	0	9	#22
GW	3	20	0	0	9	-(d/2)	0	9-(d/2)	#22
GW	4	20	-(d/2)	0	9-(d/2)	0	0	9-d	#22
GE	1
LD	5	0	0	0	58000000
GN	2	0	0	0	5	0.001
EK
EX	0	1	20	0	1	0	0
EX	0	2	1	0	1	0	0
FR	0	0	0	0	145	0
EN
