CM 
CE
SY f=145	'Frequency in MHz
SY c=299.792458	'Speed of light
SY wl=c/f	'Wavelenght in m
SY a=0.240*wl	'half vertical
SY b=0.121*wl	'half horizontal
SY h=9	'highest point
GW	1	20	0	0	h-(2b)	a	0	h-b	#22
GW	2	20	a	0	h-b	0	0	h	#22
GW	3	20	0	0	h	-a	0	h-b	#22	'X=0b / Z=3+(2a)
GW	4	20	-a	0	h-b	0	0	h-(2b)	#22
GE	1
LD	5	0	0	0	58000000
GN	2	0	0	0	5	0.001
EK
EX	0	1	20	0	1	0	0
EX	0	2	1	0	1	0	0
FR	0	0	0	0	145	0
EN
